          24
5 5 5 5 1 1 1 1
 N      4.4651219126     1.6999910524     1.5824633841
 H      4.4651219126     1.6999910524     0.5557033841
 H      5.4320309920     1.6532534718     1.9247163841
 H      3.9411914165     0.8859915171     1.9247163841
 H      4.0221433291     2.5607281683     1.9247163841
 N      0.8097962713     3.4847875788     7.0158415606
 H      0.8097962713     3.4847875788     5.9890815606
 H     -0.1388645738     3.2920697272     7.3580945606
 H      1.1172280390     4.4027113863     7.3580945606
 H      1.4510253488     2.7595816230     7.3580945606
 N      0.9333852124     4.4257146924     1.9314763372
 H     -0.0526562904     4.4257146924     1.6451928197
 H      1.5319759115     4.4257146924     1.0972558265
 H      1.1271101341     3.5873686924     2.4917282119
 H      1.1271101341     5.2640606924     2.4917282119
 N      5.3852480363     4.2279433017     6.1233840374
 H      5.4496998297     4.2279433017     5.0986489185
 H      6.3298930510     4.2279433017     6.5257277730
 H      4.8806996635     3.3895973017     6.4345792301
 H      4.8806996635     5.0662893017     6.4345792301
 Cl     6.1770101889     5.0035426967     2.6420564073
 Cl     3.1868579965     2.0734474104     4.3698776872
 Cl     2.7549709922     0.2704624554     3.7195129973
 Cl     4.3012789288     4.8507417189     3.9452579110
